/*--------------------------------*- C++ -*----------------------------------*\ 
| =========                 |                                                 |
| \      /  F ield         | OpenFOAM: The Open Source CFD Toolbox           |
|  \    /   O peration     | Version:  4.1                                   |
|   \  /    A nd           | Web:      www.OpenFOAM.org                      |
|    \/     M anipulation  |                                                 |
\*---------------------------------------------------------------------------*/
FoamFile
{
version	2.0; 
format	ascii;
class	dictionary;
object	blockMeshDict;
convertToMeters 1;

vertices
(
	(0.0 0.0 0.0)
	(0.0 -0.0 0.0)
	(0.010101010101 0.0285312635177 0.0)
	(0.010101010101 -0.0285312635177 0.0)
	(0.020202020202 0.0395129054637 0.0)
	(0.020202020202 -0.0395129054637 0.0)
	(0.030303030303 0.0475504347004 0.0)
	(0.030303030303 -0.0475504347004 0.0)
	(0.040404040404 0.0540327357916 0.0)
	(0.040404040404 -0.0540327357916 0.0)
	(0.0505050505051 0.059498794342 0.0)
	(0.0505050505051 -0.059498794342 0.0)
	(0.0606060606061 0.064225822785 0.0)
	(0.0606060606061 -0.064225822785 0.0)
	(0.0707070707071 0.0683791400094 0.0)
	(0.0707070707071 -0.0683791400094 0.0)
	(0.0808080808081 0.072066999029 0.0)
	(0.0808080808081 -0.072066999029 0.0)
	(0.0909090909091 0.0753650538379 0.0)
	(0.0909090909091 -0.0753650538379 0.0)
	(0.10101010101 0.0783287885894 0.0)
	(0.10101010101 -0.0783287885894 0.0)
	(0.111111111111 0.0810004420058 0.0)
	(0.111111111111 -0.0810004420058 0.0)
	(0.121212121212 0.083413142478 0.0)
	(0.121212121212 -0.083413142478 0.0)
	(0.131313131313 0.0855935153551 0.0)
	(0.131313131313 -0.0855935153551 0.0)
	(0.141414141414 0.0875634004537 0.0)
	(0.141414141414 -0.0875634004537 0.0)
	(0.151515151515 0.0893410249688 0.0)
	(0.151515151515 -0.0893410249688 0.0)
	(0.161616161616 0.0909418290563 0.0)
	(0.161616161616 -0.0909418290563 0.0)
	(0.171717171717 0.092379062092 0.0)
	(0.171717171717 -0.092379062092 0.0)
	(0.181818181818 0.093664222965 0.0)
	(0.181818181818 -0.093664222965 0.0)
	(0.191919191919 0.0948073915473 0.0)
	(0.191919191919 -0.0948073915473 0.0)
	(0.20202020202 0.0958174825122 0.0)
	(0.20202020202 -0.0958174825122 0.0)
	(0.212121212121 0.0967024426412 0.0)
	(0.212121212121 -0.0967024426412 0.0)
	(0.222222222222 0.0974694062771 0.0)
	(0.222222222222 -0.0974694062771 0.0)
	(0.232323232323 0.0981248192872 0.0)
	(0.232323232323 -0.0981248192872 0.0)
	(0.242424242424 0.0986745390004 0.0)
	(0.242424242424 -0.0986745390004 0.0)
	(0.252525252525 0.099123915575 0.0)
	(0.252525252525 -0.099123915575 0.0)
	(0.262626262626 0.0994778588479 0.0)
	(0.262626262626 -0.0994778588479 0.0)
	(0.272727272727 0.0997408937113 0.0)
	(0.272727272727 -0.0997408937113 0.0)
	(0.282828282828 0.0999172063358 0.0)
	(0.282828282828 -0.0999172063358 0.0)
	(0.292929292929 0.100010683023 0.0)
	(0.292929292929 -0.100010683023 0.0)
	(0.30303030303 0.100024943077 0.0)
	(0.30303030303 -0.100024943077 0.0)
	(0.313131313131 0.0999633667785 0.0)
	(0.313131313131 -0.0999633667785 0.0)
	(0.323232323232 0.0998291193318 0.0)
	(0.323232323232 -0.0998291193318 0.0)
	(0.333333333333 0.0996251714656 0.0)
	(0.333333333333 -0.0996251714656 0.0)
	(0.343434343434 0.0993543172441 0.0)
	(0.343434343434 -0.0993543172441 0.0)
	(0.353535353535 0.0990191895366 0.0)
	(0.353535353535 -0.0990191895366 0.0)
	(0.363636363636 0.0986222735116 0.0)
	(0.363636363636 -0.0986222735116 0.0)
	(0.373737373737 0.0981659184537 0.0)
	(0.373737373737 -0.0981659184537 0.0)
	(0.383838383838 0.0976523481538 0.0)
	(0.383838383838 -0.0976523481538 0.0)
	(0.393939393939 0.0970836700745 0.0)
	(0.393939393939 -0.0970836700745 0.0)
	(0.40404040404 0.0964618834658 0.0)
	(0.40404040404 -0.0964618834658 0.0)
	(0.414141414141 0.095788886572 0.0)
	(0.414141414141 -0.095788886572 0.0)
	(0.424242424242 0.0950664830525 0.0)
	(0.424242424242 -0.0950664830525 0.0)
	(0.434343434343 0.0942963877185 0.0)
	(0.434343434343 -0.0942963877185 0.0)
	(0.444444444444 0.093480231672 0.0)
	(0.444444444444 -0.093480231672 0.0)
	(0.454545454545 0.092619566923 0.0)
	(0.454545454545 -0.092619566923 0.0)
	(0.464646464646 0.0917158705464 0.0)
	(0.464646464646 -0.0917158705464 0.0)
	(0.474747474747 0.090770548435 0.0)
	(0.474747474747 -0.090770548435 0.0)
	(0.484848484848 0.0897849386943 0.0)
	(0.484848484848 -0.0897849386943 0.0)
	(0.494949494949 0.0887603147214 0.0)
	(0.494949494949 -0.0887603147214 0.0)
	(0.505050505051 0.0876978880018 0.0)
	(0.505050505051 -0.0876978880018 0.0)
	(0.515151515152 0.0865988106558 0.0)
	(0.515151515152 -0.0865988106558 0.0)
	(0.525252525253 0.0854641777618 0.0)
	(0.525252525253 -0.0854641777618 0.0)
	(0.535353535354 0.0842950294785 0.0)
	(0.535353535354 -0.0842950294785 0.0)
	(0.545454545455 0.0830923529889 0.0)
	(0.545454545455 -0.0830923529889 0.0)
	(0.555555555556 0.0818570842814 0.0)
	(0.555555555556 -0.0818570842814 0.0)
	(0.565656565657 0.0805901097879 0.0)
	(0.565656565657 -0.0805901097879 0.0)
	(0.575757575758 0.0792922678888 0.0)
	(0.575757575758 -0.0792922678888 0.0)
	(0.585858585859 0.0779643503008 0.0)
	(0.585858585859 -0.0779643503008 0.0)
	(0.59595959596 0.0766071033573 0.0)
	(0.59595959596 -0.0766071033573 0.0)
	(0.606060606061 0.0752212291915 0.0)
	(0.606060606061 -0.0752212291915 0.0)
	(0.616161616162 0.0738073868308 0.0)
	(0.616161616162 -0.0738073868308 0.0)
	(0.626262626263 0.0723661932115 0.0)
	(0.626262626263 -0.0723661932115 0.0)
	(0.636363636364 0.070898224119 0.0)
	(0.636363636364 -0.070898224119 0.0)
	(0.646464646465 0.0694040150626 0.0)
	(0.646464646465 -0.0694040150626 0.0)
	(0.656565656566 0.0678840620875 0.0)
	(0.656565656566 -0.0678840620875 0.0)
	(0.666666666667 0.0663388225318 0.0)
	(0.666666666667 -0.0663388225318 0.0)
	(0.676767676768 0.0647687157318 0.0)
	(0.676767676768 -0.0647687157318 0.0)
	(0.686868686869 0.0631741236799 0.0)
	(0.686868686869 -0.0631741236799 0.0)
	(0.69696969697 0.0615553916396 0.0)
	(0.69696969697 -0.0615553916396 0.0)
	(0.707070707071 0.0599128287197 0.0)
	(0.707070707071 -0.0599128287197 0.0)
	(0.717171717172 0.0582467084125 0.0)
	(0.717171717172 -0.0582467084125 0.0)
	(0.727272727273 0.0565572690979 0.0)
	(0.727272727273 -0.0565572690979 0.0)
	(0.737373737374 0.0548447145155 0.0)
	(0.737373737374 -0.0548447145155 0.0)
	(0.747474747475 0.0531092142085 0.0)
	(0.747474747475 -0.0531092142085 0.0)
	(0.757575757576 0.0513509039402 0.0)
	(0.757575757576 -0.0513509039402 0.0)
	(0.767676767677 0.0495698860853 0.0)
	(0.767676767677 -0.0495698860853 0.0)
	(0.777777777778 0.0477662299994 0.0)
	(0.777777777778 -0.0477662299994 0.0)
	(0.787878787879 0.0459399723649 0.0)
	(0.787878787879 -0.0459399723649 0.0)
	(0.79797979798 0.0440911175194 0.0)
	(0.79797979798 -0.0440911175194 0.0)
	(0.808080808081 0.0422196377631 0.0)
	(0.808080808081 -0.0422196377631 0.0)
	(0.818181818182 0.040325473651 0.0)
	(0.818181818182 -0.040325473651 0.0)
	(0.828282828283 0.0384085342674 0.0)
	(0.828282828283 -0.0384085342674 0.0)
	(0.838383838384 0.0364686974864 0.0)
	(0.838383838384 -0.0364686974864 0.0)
	(0.848484848485 0.0345058102176 0.0)
	(0.848484848485 -0.0345058102176 0.0)
	(0.858585858586 0.0325196886391 0.0)
	(0.858585858586 -0.0325196886391 0.0)
	(0.868686868687 0.030510118418 0.0)
	(0.868686868687 -0.030510118418 0.0)
	(0.878787878788 0.0284768549198 0.0)
	(0.878787878788 -0.0284768549198 0.0)
	(0.888888888889 0.0264196234062 0.0)
	(0.888888888889 -0.0264196234062 0.0)
	(0.89898989899 0.0243381192236 0.0)
	(0.89898989899 -0.0243381192236 0.0)
	(0.909090909091 0.0222320079816 0.0)
	(0.909090909091 -0.0222320079816 0.0)
	(0.919191919192 0.020100925723 0.0)
	(0.919191919192 -0.020100925723 0.0)
	(0.929292929293 0.0179444790849 0.0)
	(0.929292929293 -0.0179444790849 0.0)
	(0.939393939394 0.0157622454526 0.0)
	(0.939393939394 -0.0157622454526 0.0)
	(0.949494949495 0.0135537731053 0.0)
	(0.949494949495 -0.0135537731053 0.0)
	(0.959595959596 0.0113185813555 0.0)
	(0.959595959596 -0.0113185813555 0.0)
	(0.969696969697 0.00905616068174 0.0)
	(0.969696969697 -0.00905616068174 0.0)
	(0.979797979798 0.00676597285443 0.0)
	(0.979797979798 -0.00676597285443 0.0)
	(0.989898989899 0.00444745105685 0.0)
	(0.989898989899 -0.00444745105685 0.0)
	(1.0 0.0021 0.0)
	(1.0 -0.0021 0.0)
	(0.0 0.0 0.00676767676768)
	(0.0 -0.0 0.00676767676768)
	(0.010101010101 0.0285312635177 0.00676767676768)
	(0.010101010101 -0.0285312635177 0.00676767676768)
	(0.020202020202 0.0395129054637 0.00676767676768)
	(0.020202020202 -0.0395129054637 0.00676767676768)
	(0.030303030303 0.0475504347004 0.00676767676768)
	(0.030303030303 -0.0475504347004 0.00676767676768)
	(0.040404040404 0.0540327357916 0.00676767676768)
	(0.040404040404 -0.0540327357916 0.00676767676768)
	(0.0505050505051 0.059498794342 0.00676767676768)
	(0.0505050505051 -0.059498794342 0.00676767676768)
	(0.0606060606061 0.064225822785 0.00676767676768)
	(0.0606060606061 -0.064225822785 0.00676767676768)
	(0.0707070707071 0.0683791400094 0.00676767676768)
	(0.0707070707071 -0.0683791400094 0.00676767676768)
	(0.0808080808081 0.072066999029 0.00676767676768)
	(0.0808080808081 -0.072066999029 0.00676767676768)
	(0.0909090909091 0.0753650538379 0.00676767676768)
	(0.0909090909091 -0.0753650538379 0.00676767676768)
	(0.10101010101 0.0783287885894 0.00676767676768)
	(0.10101010101 -0.0783287885894 0.00676767676768)
	(0.111111111111 0.0810004420058 0.00676767676768)
	(0.111111111111 -0.0810004420058 0.00676767676768)
	(0.121212121212 0.083413142478 0.00676767676768)
	(0.121212121212 -0.083413142478 0.00676767676768)
	(0.131313131313 0.0855935153551 0.00676767676768)
	(0.131313131313 -0.0855935153551 0.00676767676768)
	(0.141414141414 0.0875634004537 0.00676767676768)
	(0.141414141414 -0.0875634004537 0.00676767676768)
	(0.151515151515 0.0893410249688 0.00676767676768)
	(0.151515151515 -0.0893410249688 0.00676767676768)
	(0.161616161616 0.0909418290563 0.00676767676768)
	(0.161616161616 -0.0909418290563 0.00676767676768)
	(0.171717171717 0.092379062092 0.00676767676768)
	(0.171717171717 -0.092379062092 0.00676767676768)
	(0.181818181818 0.093664222965 0.00676767676768)
	(0.181818181818 -0.093664222965 0.00676767676768)
	(0.191919191919 0.0948073915473 0.00676767676768)
	(0.191919191919 -0.0948073915473 0.00676767676768)
	(0.20202020202 0.0958174825122 0.00676767676768)
	(0.20202020202 -0.0958174825122 0.00676767676768)
	(0.212121212121 0.0967024426412 0.00676767676768)
	(0.212121212121 -0.0967024426412 0.00676767676768)
	(0.222222222222 0.0974694062771 0.00676767676768)
	(0.222222222222 -0.0974694062771 0.00676767676768)
	(0.232323232323 0.0981248192872 0.00676767676768)
	(0.232323232323 -0.0981248192872 0.00676767676768)
	(0.242424242424 0.0986745390004 0.00676767676768)
	(0.242424242424 -0.0986745390004 0.00676767676768)
	(0.252525252525 0.099123915575 0.00676767676768)
	(0.252525252525 -0.099123915575 0.00676767676768)
	(0.262626262626 0.0994778588479 0.00676767676768)
	(0.262626262626 -0.0994778588479 0.00676767676768)
	(0.272727272727 0.0997408937113 0.00676767676768)
	(0.272727272727 -0.0997408937113 0.00676767676768)
	(0.282828282828 0.0999172063358 0.00676767676768)
	(0.282828282828 -0.0999172063358 0.00676767676768)
	(0.292929292929 0.100010683023 0.00676767676768)
	(0.292929292929 -0.100010683023 0.00676767676768)
	(0.30303030303 0.100024943077 0.00676767676768)
	(0.30303030303 -0.100024943077 0.00676767676768)
	(0.313131313131 0.0999633667785 0.00676767676768)
	(0.313131313131 -0.0999633667785 0.00676767676768)
	(0.323232323232 0.0998291193318 0.00676767676768)
	(0.323232323232 -0.0998291193318 0.00676767676768)
	(0.333333333333 0.0996251714656 0.00676767676768)
	(0.333333333333 -0.0996251714656 0.00676767676768)
	(0.343434343434 0.0993543172441 0.00676767676768)
	(0.343434343434 -0.0993543172441 0.00676767676768)
	(0.353535353535 0.0990191895366 0.00676767676768)
	(0.353535353535 -0.0990191895366 0.00676767676768)
	(0.363636363636 0.0986222735116 0.00676767676768)
	(0.363636363636 -0.0986222735116 0.00676767676768)
	(0.373737373737 0.0981659184537 0.00676767676768)
	(0.373737373737 -0.0981659184537 0.00676767676768)
	(0.383838383838 0.0976523481538 0.00676767676768)
	(0.383838383838 -0.0976523481538 0.00676767676768)
	(0.393939393939 0.0970836700745 0.00676767676768)
	(0.393939393939 -0.0970836700745 0.00676767676768)
	(0.40404040404 0.0964618834658 0.00676767676768)
	(0.40404040404 -0.0964618834658 0.00676767676768)
	(0.414141414141 0.095788886572 0.00676767676768)
	(0.414141414141 -0.095788886572 0.00676767676768)
	(0.424242424242 0.0950664830525 0.00676767676768)
	(0.424242424242 -0.0950664830525 0.00676767676768)
	(0.434343434343 0.0942963877185 0.00676767676768)
	(0.434343434343 -0.0942963877185 0.00676767676768)
	(0.444444444444 0.093480231672 0.00676767676768)
	(0.444444444444 -0.093480231672 0.00676767676768)
	(0.454545454545 0.092619566923 0.00676767676768)
	(0.454545454545 -0.092619566923 0.00676767676768)
	(0.464646464646 0.0917158705464 0.00676767676768)
	(0.464646464646 -0.0917158705464 0.00676767676768)
	(0.474747474747 0.090770548435 0.00676767676768)
	(0.474747474747 -0.090770548435 0.00676767676768)
	(0.484848484848 0.0897849386943 0.00676767676768)
	(0.484848484848 -0.0897849386943 0.00676767676768)
	(0.494949494949 0.0887603147214 0.00676767676768)
	(0.494949494949 -0.0887603147214 0.00676767676768)
	(0.505050505051 0.0876978880018 0.00676767676768)
	(0.505050505051 -0.0876978880018 0.00676767676768)
	(0.515151515152 0.0865988106558 0.00676767676768)
	(0.515151515152 -0.0865988106558 0.00676767676768)
	(0.525252525253 0.0854641777618 0.00676767676768)
	(0.525252525253 -0.0854641777618 0.00676767676768)
	(0.535353535354 0.0842950294785 0.00676767676768)
	(0.535353535354 -0.0842950294785 0.00676767676768)
	(0.545454545455 0.0830923529889 0.00676767676768)
	(0.545454545455 -0.0830923529889 0.00676767676768)
	(0.555555555556 0.0818570842814 0.00676767676768)
	(0.555555555556 -0.0818570842814 0.00676767676768)
	(0.565656565657 0.0805901097879 0.00676767676768)
	(0.565656565657 -0.0805901097879 0.00676767676768)
	(0.575757575758 0.0792922678888 0.00676767676768)
	(0.575757575758 -0.0792922678888 0.00676767676768)
	(0.585858585859 0.0779643503008 0.00676767676768)
	(0.585858585859 -0.0779643503008 0.00676767676768)
	(0.59595959596 0.0766071033573 0.00676767676768)
	(0.59595959596 -0.0766071033573 0.00676767676768)
	(0.606060606061 0.0752212291915 0.00676767676768)
	(0.606060606061 -0.0752212291915 0.00676767676768)
	(0.616161616162 0.0738073868308 0.00676767676768)
	(0.616161616162 -0.0738073868308 0.00676767676768)
	(0.626262626263 0.0723661932115 0.00676767676768)
	(0.626262626263 -0.0723661932115 0.00676767676768)
	(0.636363636364 0.070898224119 0.00676767676768)
	(0.636363636364 -0.070898224119 0.00676767676768)
	(0.646464646465 0.0694040150626 0.00676767676768)
	(0.646464646465 -0.0694040150626 0.00676767676768)
	(0.656565656566 0.0678840620875 0.00676767676768)
	(0.656565656566 -0.0678840620875 0.00676767676768)
	(0.666666666667 0.0663388225318 0.00676767676768)
	(0.666666666667 -0.0663388225318 0.00676767676768)
	(0.676767676768 0.0647687157318 0.00676767676768)
	(0.676767676768 -0.0647687157318 0.00676767676768)
	(0.686868686869 0.0631741236799 0.00676767676768)
	(0.686868686869 -0.0631741236799 0.00676767676768)
	(0.69696969697 0.0615553916396 0.00676767676768)
	(0.69696969697 -0.0615553916396 0.00676767676768)
	(0.707070707071 0.0599128287197 0.00676767676768)
	(0.707070707071 -0.0599128287197 0.00676767676768)
	(0.717171717172 0.0582467084125 0.00676767676768)
	(0.717171717172 -0.0582467084125 0.00676767676768)
	(0.727272727273 0.0565572690979 0.00676767676768)
	(0.727272727273 -0.0565572690979 0.00676767676768)
	(0.737373737374 0.0548447145155 0.00676767676768)
	(0.737373737374 -0.0548447145155 0.00676767676768)
	(0.747474747475 0.0531092142085 0.00676767676768)
	(0.747474747475 -0.0531092142085 0.00676767676768)
	(0.757575757576 0.0513509039402 0.00676767676768)
	(0.757575757576 -0.0513509039402 0.00676767676768)
	(0.767676767677 0.0495698860853 0.00676767676768)
	(0.767676767677 -0.0495698860853 0.00676767676768)
	(0.777777777778 0.0477662299994 0.00676767676768)
	(0.777777777778 -0.0477662299994 0.00676767676768)
	(0.787878787879 0.0459399723649 0.00676767676768)
	(0.787878787879 -0.0459399723649 0.00676767676768)
	(0.79797979798 0.0440911175194 0.00676767676768)
	(0.79797979798 -0.0440911175194 0.00676767676768)
	(0.808080808081 0.0422196377631 0.00676767676768)
	(0.808080808081 -0.0422196377631 0.00676767676768)
	(0.818181818182 0.040325473651 0.00676767676768)
	(0.818181818182 -0.040325473651 0.00676767676768)
	(0.828282828283 0.0384085342674 0.00676767676768)
	(0.828282828283 -0.0384085342674 0.00676767676768)
	(0.838383838384 0.0364686974864 0.00676767676768)
	(0.838383838384 -0.0364686974864 0.00676767676768)
	(0.848484848485 0.0345058102176 0.00676767676768)
	(0.848484848485 -0.0345058102176 0.00676767676768)
	(0.858585858586 0.0325196886391 0.00676767676768)
	(0.858585858586 -0.0325196886391 0.00676767676768)
	(0.868686868687 0.030510118418 0.00676767676768)
	(0.868686868687 -0.030510118418 0.00676767676768)
	(0.878787878788 0.0284768549198 0.00676767676768)
	(0.878787878788 -0.0284768549198 0.00676767676768)
	(0.888888888889 0.0264196234062 0.00676767676768)
	(0.888888888889 -0.0264196234062 0.00676767676768)
	(0.89898989899 0.0243381192236 0.00676767676768)
	(0.89898989899 -0.0243381192236 0.00676767676768)
	(0.909090909091 0.0222320079816 0.00676767676768)
	(0.909090909091 -0.0222320079816 0.00676767676768)
	(0.919191919192 0.020100925723 0.00676767676768)
	(0.919191919192 -0.020100925723 0.00676767676768)
	(0.929292929293 0.0179444790849 0.00676767676768)
	(0.929292929293 -0.0179444790849 0.00676767676768)
	(0.939393939394 0.0157622454526 0.00676767676768)
	(0.939393939394 -0.0157622454526 0.00676767676768)
	(0.949494949495 0.0135537731053 0.00676767676768)
	(0.949494949495 -0.0135537731053 0.00676767676768)
	(0.959595959596 0.0113185813555 0.00676767676768)
	(0.959595959596 -0.0113185813555 0.00676767676768)
	(0.969696969697 0.00905616068174 0.00676767676768)
	(0.969696969697 -0.00905616068174 0.00676767676768)
	(0.979797979798 0.00676597285443 0.00676767676768)
	(0.979797979798 -0.00676597285443 0.00676767676768)
	(0.989898989899 0.00444745105685 0.00676767676768)
	(0.989898989899 -0.00444745105685 0.00676767676768)
	(1.0 0.0021 0.00676767676768)
	(1.0 -0.0021 0.00676767676768)
	(0.0 0.0 0.0135353535354)
	(0.0 -0.0 0.0135353535354)
	(0.010101010101 0.0285312635177 0.0135353535354)
	(0.010101010101 -0.0285312635177 0.0135353535354)
	(0.020202020202 0.0395129054637 0.0135353535354)
	(0.020202020202 -0.0395129054637 0.0135353535354)
	(0.030303030303 0.0475504347004 0.0135353535354)
	(0.030303030303 -0.0475504347004 0.0135353535354)
	(0.040404040404 0.0540327357916 0.0135353535354)
	(0.040404040404 -0.0540327357916 0.0135353535354)
	(0.0505050505051 0.059498794342 0.0135353535354)
	(0.0505050505051 -0.059498794342 0.0135353535354)
	(0.0606060606061 0.064225822785 0.0135353535354)
	(0.0606060606061 -0.064225822785 0.0135353535354)
	(0.0707070707071 0.0683791400094 0.0135353535354)
	(0.0707070707071 -0.0683791400094 0.0135353535354)
	(0.0808080808081 0.072066999029 0.0135353535354)
	(0.0808080808081 -0.072066999029 0.0135353535354)
	(0.0909090909091 0.0753650538379 0.0135353535354)
	(0.0909090909091 -0.0753650538379 0.0135353535354)
	(0.10101010101 0.0783287885894 0.0135353535354)
	(0.10101010101 -0.0783287885894 0.0135353535354)
	(0.111111111111 0.0810004420058 0.0135353535354)
	(0.111111111111 -0.0810004420058 0.0135353535354)
	(0.121212121212 0.083413142478 0.0135353535354)
	(0.121212121212 -0.083413142478 0.0135353535354)
	(0.131313131313 0.0855935153551 0.0135353535354)
	(0.131313131313 -0.0855935153551 0.0135353535354)
	(0.141414141414 0.0875634004537 0.0135353535354)
	(0.141414141414 -0.0875634004537 0.0135353535354)
	(0.151515151515 0.0893410249688 0.0135353535354)
	(0.151515151515 -0.0893410249688 0.0135353535354)
	(0.161616161616 0.0909418290563 0.0135353535354)
	(0.161616161616 -0.0909418290563 0.0135353535354)
	(0.171717171717 0.092379062092 0.0135353535354)
	(0.171717171717 -0.092379062092 0.0135353535354)
	(0.181818181818 0.093664222965 0.0135353535354)
	(0.181818181818 -0.093664222965 0.0135353535354)
	(0.191919191919 0.0948073915473 0.0135353535354)
	(0.191919191919 -0.0948073915473 0.0135353535354)
	(0.20202020202 0.0958174825122 0.0135353535354)
	(0.20202020202 -0.0958174825122 0.0135353535354)
	(0.212121212121 0.0967024426412 0.0135353535354)
	(0.212121212121 -0.0967024426412 0.0135353535354)
	(0.222222222222 0.0974694062771 0.0135353535354)
	(0.222222222222 -0.0974694062771 0.0135353535354)
	(0.232323232323 0.0981248192872 0.0135353535354)
	(0.232323232323 -0.0981248192872 0.0135353535354)
	(0.242424242424 0.0986745390004 0.0135353535354)
	(0.242424242424 -0.0986745390004 0.0135353535354)
	(0.252525252525 0.099123915575 0.0135353535354)
	(0.252525252525 -0.099123915575 0.0135353535354)
	(0.262626262626 0.0994778588479 0.0135353535354)
	(0.262626262626 -0.0994778588479 0.0135353535354)
	(0.272727272727 0.0997408937113 0.0135353535354)
	(0.272727272727 -0.0997408937113 0.0135353535354)
	(0.282828282828 0.0999172063358 0.0135353535354)
	(0.282828282828 -0.0999172063358 0.0135353535354)
	(0.292929292929 0.100010683023 0.0135353535354)
	(0.292929292929 -0.100010683023 0.0135353535354)
	(0.30303030303 0.100024943077 0.0135353535354)
	(0.30303030303 -0.100024943077 0.0135353535354)
	(0.313131313131 0.0999633667785 0.0135353535354)
	(0.313131313131 -0.0999633667785 0.0135353535354)
	(0.323232323232 0.0998291193318 0.0135353535354)
	(0.323232323232 -0.0998291193318 0.0135353535354)
	(0.333333333333 0.0996251714656 0.0135353535354)
	(0.333333333333 -0.0996251714656 0.0135353535354)
	(0.343434343434 0.0993543172441 0.0135353535354)
	(0.343434343434 -0.0993543172441 0.0135353535354)
	(0.353535353535 0.0990191895366 0.0135353535354)
	(0.353535353535 -0.0990191895366 0.0135353535354)
	(0.363636363636 0.0986222735116 0.0135353535354)
	(0.363636363636 -0.0986222735116 0.0135353535354)
	(0.373737373737 0.0981659184537 0.0135353535354)
	(0.373737373737 -0.0981659184537 0.0135353535354)
	(0.383838383838 0.0976523481538 0.0135353535354)
	(0.383838383838 -0.0976523481538 0.0135353535354)
	(0.393939393939 0.0970836700745 0.0135353535354)
	(0.393939393939 -0.0970836700745 0.0135353535354)
	(0.40404040404 0.0964618834658 0.0135353535354)
	(0.40404040404 -0.0964618834658 0.0135353535354)
	(0.414141414141 0.095788886572 0.0135353535354)
	(0.414141414141 -0.095788886572 0.0135353535354)
	(0.424242424242 0.0950664830525 0.0135353535354)
	(0.424242424242 -0.0950664830525 0.0135353535354)
	(0.434343434343 0.0942963877185 0.0135353535354)
	(0.434343434343 -0.0942963877185 0.0135353535354)
	(0.444444444444 0.093480231672 0.0135353535354)
	(0.444444444444 -0.093480231672 0.0135353535354)
	(0.454545454545 0.092619566923 0.0135353535354)
	(0.454545454545 -0.092619566923 0.0135353535354)
	(0.464646464646 0.0917158705464 0.0135353535354)
	(0.464646464646 -0.0917158705464 0.0135353535354)
	(0.474747474747 0.090770548435 0.0135353535354)
	(0.474747474747 -0.090770548435 0.0135353535354)
	(0.484848484848 0.0897849386943 0.0135353535354)
	(0.484848484848 -0.0897849386943 0.0135353535354)
	(0.494949494949 0.0887603147214 0.0135353535354)
	(0.494949494949 -0.0887603147214 0.0135353535354)
	(0.505050505051 0.0876978880018 0.0135353535354)
	(0.505050505051 -0.0876978880018 0.0135353535354)
	(0.515151515152 0.0865988106558 0.0135353535354)
	(0.515151515152 -0.0865988106558 0.0135353535354)
	(0.525252525253 0.0854641777618 0.0135353535354)
	(0.525252525253 -0.0854641777618 0.0135353535354)
	(0.535353535354 0.0842950294785 0.0135353535354)
	(0.535353535354 -0.0842950294785 0.0135353535354)
	(0.545454545455 0.0830923529889 0.0135353535354)
	(0.545454545455 -0.0830923529889 0.0135353535354)
	(0.555555555556 0.0818570842814 0.0135353535354)
	(0.555555555556 -0.0818570842814 0.0135353535354)
	(0.565656565657 0.0805901097879 0.0135353535354)
	(0.565656565657 -0.0805901097879 0.0135353535354)
	(0.575757575758 0.0792922678888 0.0135353535354)
	(0.575757575758 -0.0792922678888 0.0135353535354)
	(0.585858585859 0.0779643503008 0.0135353535354)
	(0.585858585859 -0.0779643503008 0.0135353535354)
	(0.59595959596 0.0766071033573 0.0135353535354)
	(0.59595959596 -0.0766071033573 0.0135353535354)
	(0.606060606061 0.0752212291915 0.0135353535354)
	(0.606060606061 -0.0752212291915 0.0135353535354)
	(0.616161616162 0.0738073868308 0.0135353535354)
	(0.616161616162 -0.0738073868308 0.0135353535354)
	(0.626262626263 0.0723661932115 0.0135353535354)
	(0.626262626263 -0.0723661932115 0.0135353535354)
	(0.636363636364 0.070898224119 0.0135353535354)
	(0.636363636364 -0.070898224119 0.0135353535354)
	(0.646464646465 0.0694040150626 0.0135353535354)
	(0.646464646465 -0.0694040150626 0.0135353535354)
	(0.656565656566 0.0678840620875 0.0135353535354)
	(0.656565656566 -0.0678840620875 0.0135353535354)
	(0.666666666667 0.0663388225318 0.0135353535354)
	(0.666666666667 -0.0663388225318 0.0135353535354)
	(0.676767676768 0.0647687157318 0.0135353535354)
	(0.676767676768 -0.0647687157318 0.0135353535354)
	(0.686868686869 0.0631741236799 0.0135353535354)
	(0.686868686869 -0.0631741236799 0.0135353535354)
	(0.69696969697 0.0615553916396 0.0135353535354)
	(0.69696969697 -0.0615553916396 0.0135353535354)
	(0.707070707071 0.0599128287197 0.0135353535354)
	(0.707070707071 -0.0599128287197 0.0135353535354)
	(0.717171717172 0.0582467084125 0.0135353535354)
	(0.717171717172 -0.0582467084125 0.0135353535354)
	(0.727272727273 0.0565572690979 0.0135353535354)
	(0.727272727273 -0.0565572690979 0.0135353535354)
	(0.737373737374 0.0548447145155 0.0135353535354)
	(0.737373737374 -0.0548447145155 0.0135353535354)
	(0.747474747475 0.0531092142085 0.0135353535354)
	(0.747474747475 -0.0531092142085 0.0135353535354)
	(0.757575757576 0.0513509039402 0.0135353535354)
	(0.757575757576 -0.0513509039402 0.0135353535354)
	(0.767676767677 0.0495698860853 0.0135353535354)
	(0.767676767677 -0.0495698860853 0.0135353535354)
	(0.777777777778 0.0477662299994 0.0135353535354)
	(0.777777777778 -0.0477662299994 0.0135353535354)
	(0.787878787879 0.0459399723649 0.0135353535354)
	(0.787878787879 -0.0459399723649 0.0135353535354)
	(0.79797979798 0.0440911175194 0.0135353535354)
	(0.79797979798 -0.0440911175194 0.0135353535354)
	(0.808080808081 0.0422196377631 0.0135353535354)
	(0.808080808081 -0.0422196377631 0.0135353535354)
	(0.818181818182 0.040325473651 0.0135353535354)
	(0.818181818182 -0.040325473651 0.0135353535354)
	(0.828282828283 0.0384085342674 0.0135353535354)
	(0.828282828283 -0.0384085342674 0.0135353535354)
	(0.838383838384 0.0364686974864 0.0135353535354)
	(0.838383838384 -0.0364686974864 0.0135353535354)
	(0.848484848485 0.0345058102176 0.0135353535354)
	(0.848484848485 -0.0345058102176 0.0135353535354)
	(0.858585858586 0.0325196886391 0.0135353535354)
	(0.858585858586 -0.0325196886391 0.0135353535354)
	(0.868686868687 0.030510118418 0.0135353535354)
	(0.868686868687 -0.030510118418 0.0135353535354)
	(0.878787878788 0.0284768549198 0.0135353535354)
	(0.878787878788 -0.0284768549198 0.0135353535354)
	(0.888888888889 0.0264196234062 0.0135353535354)
	(0.888888888889 -0.0264196234062 0.0135353535354)
	(0.89898989899 0.0243381192236 0.0135353535354)
	(0.89898989899 -0.0243381192236 0.0135353535354)
	(0.909090909091 0.0222320079816 0.0135353535354)
	(0.909090909091 -0.0222320079816 0.0135353535354)
	(0.919191919192 0.020100925723 0.0135353535354)
	(0.919191919192 -0.020100925723 0.0135353535354)
	(0.929292929293 0.0179444790849 0.0135353535354)
	(0.929292929293 -0.0179444790849 0.0135353535354)
	(0.939393939394 0.0157622454526 0.0135353535354)
	(0.939393939394 -0.0157622454526 0.0135353535354)
	(0.949494949495 0.0135537731053 0.0135353535354)
	(0.949494949495 -0.0135537731053 0.0135353535354)
	(0.959595959596 0.0113185813555 0.0135353535354)
	(0.959595959596 -0.0113185813555 0.0135353535354)
	(0.969696969697 0.00905616068174 0.0135353535354)
	(0.969696969697 -0.00905616068174 0.0135353535354)
	(0.979797979798 0.00676597285443 0.0135353535354)
	(0.979797979798 -0.00676597285443 0.0135353535354)
	(0.989898989899 0.00444745105685 0.0135353535354)
	(0.989898989899 -0.00444745105685 0.0135353535354)
	(1.0 0.0021 0.0135353535354)
	(1.0 -0.0021 0.0135353535354)
	(0.0 0.0 0.020303030303)
	(0.0 -0.0 0.020303030303)
	(0.010101010101 0.0285312635177 0.020303030303)
	(0.010101010101 -0.0285312635177 0.020303030303)
	(0.020202020202 0.0395129054637 0.020303030303)
	(0.020202020202 -0.0395129054637 0.020303030303)
	(0.030303030303 0.0475504347004 0.020303030303)
	(0.030303030303 -0.0475504347004 0.020303030303)
	(0.040404040404 0.0540327357916 0.020303030303)
	(0.040404040404 -0.0540327357916 0.020303030303)
	(0.0505050505051 0.059498794342 0.020303030303)
	(0.0505050505051 -0.059498794342 0.020303030303)
	(0.0606060606061 0.064225822785 0.020303030303)
	(0.0606060606061 -0.064225822785 0.020303030303)
	(0.0707070707071 0.0683791400094 0.020303030303)
	(0.0707070707071 -0.0683791400094 0.020303030303)
	(0.0808080808081 0.072066999029 0.020303030303)
	(0.0808080808081 -0.072066999029 0.020303030303)
	(0.0909090909091 0.0753650538379 0.020303030303)
	(0.0909090909091 -0.0753650538379 0.020303030303)
	(0.10101010101 0.0783287885894 0.020303030303)
	(0.10101010101 -0.0783287885894 0.020303030303)
	(0.111111111111 0.0810004420058 0.020303030303)
	(0.111111111111 -0.0810004420058 0.020303030303)
	(0.121212121212 0.083413142478 0.020303030303)
	(0.121212121212 -0.083413142478 0.020303030303)
	(0.131313131313 0.0855935153551 0.020303030303)
	(0.131313131313 -0.0855935153551 0.020303030303)
	(0.141414141414 0.0875634004537 0.020303030303)
	(0.141414141414 -0.0875634004537 0.020303030303)
	(0.151515151515 0.0893410249688 0.020303030303)
	(0.151515151515 -0.0893410249688 0.020303030303)
	(0.161616161616 0.0909418290563 0.020303030303)